<?xml version="1.0" encoding="UTF-8"?>

<!-- generated on 2025-12-20 15:44:21.513307 by tlsCoordinator.py v1_23_1+0000-676720d13f6
<configuration>
    <net-file value="F:\sumo-mcp\tests\test_outputs\manual_check\grid.net.xml"/>
    <output-file value="F:\sumo-mcp\tests\test_outputs\manual_check\signal_opt\optimized.net.xml"/>
    <route-file value="F:\sumo-mcp\tests\test_outputs\manual_check\routes.xml"/>
</configuration>
-->

<additional xmlns:xsi="http://www.w3.org/2001/XMLSchema-instance" xsi:noNamespaceSchemaLocation="http://sumo.dlr.de/xsd/additional_file.xsd">
</additional>
